Circuit: * C:\users\alejopm\Favorites\alejopm\zenite\MSC22\simulations\INA826_2.asc

WARNING: Node VP- is floating.

WARNING: Less than two connections to node VP+.  This node is used by V§PANEL.
WARNING: Less than two connections to node VP-.  This node is used by V§PANEL.
u3:input1:vi3b: Missing value, assumed 0V @ DC
u3:input1:vi8b: Missing value, assumed 0V @ DC
u3:output:vi3b: Missing value, assumed 0V @ DC
u3:output:vi8b: Missing value, assumed 0V @ DC
u3:u1:vi3b: Missing value, assumed 0V @ DC
u3:u1:vi8b: Missing value, assumed 0V @ DC
u3:bias:vib1: Missing value, assumed 0V @ DC
Direct Newton iteration failed to find .op point.  (Use ".option noopiter" to skip.)
Starting Gmin stepping
Gmin = 10
Gmin = 1.07374
Gmin = 0.115292
Gmin = 0.0123794
Gmin = 0.00132923
Gmin = 0.000142725
Gmin = 1.5325e-005
Gmin = 1.6455e-006
Gmin = 1.76685e-007
Gmin = 1.89714e-008
Gmin = 2.03704e-009
Gmin = 2.18725e-010
Gmin = 2.34854e-011
Gmin = 2.52173e-012
Gmin = 2.70769e-013
Gmin = 0
Gmin stepping succeeded in finding the operating point.


Date: Tue Jun 21 16:21:48 2022
Total elapsed time: 2.817 seconds.

tnom = 27
temp = 27
method = trap
totiter = 28239
traniter = 27766
tranpoints = 13260
accept = 8033
rejected = 5227
matrix size = 262
fillins = 250
solver = Normal
Thread vector: 97.0/62.1[5] 23.4/17.7[3] 13.2/25.6[1] 6.3/56.8[1]  2592/500
Matrix Compiler1: 27.84 KB object code size  18.6/10.0/[6.2]
Matrix Compiler2: 26.93 KB object code size  15.0/14.6/[11.8]

